
*.CONNECT GND VSS VSSE
*.CONNECT VDD V5V V5VE
.GLOBAL VDD VSS VSSE V5VE V5V VDD
************************************************************************
* auCdl Netlist:
* 
* Library Name:  HGEE095LPT5_IP
* Top Cell Name: A670_ANA_TOP
* View Name:     schematic
* Netlisted on:  Apr 27 17:17:57 2018
************************************************************************

*.BIPOLAR
*.RESI = 2 
*.RESVAL
*.CAPVAL
*.DIOAREA
*.EQUATION
*.LDD
*.SCALE METER
*.MEGA
.PARAM



************************************************************************
* Library Name: HGEE095LPT5_IP
* Cell Name:    SHENL_LIB_NAND3_1_1
* View Name:    schematic
************************************************************************

.SUBCKT SHENL_LIB_NAND3_1_1 IN1 IN2 IN3 OUT VIN VSS
*.PININFO IN1:I IN2:I IN3:I VIN:I VSS:I OUT:O
MM3 net039 IN3 VSS VSS nch5 W=1u L=600n m=1.0
MM2 net17 IN1 net039 VSS nch5 W=1u L=600n m=1.0
MN53 OUT IN2 net17 VSS nch5 W=1u L=600n m=1.0
MM1 OUT IN3 VIN VIN pch5 W=1u L=600n m=1.0
MP59 OUT IN2 VIN VIN pch5 W=1u L=600n m=1.0
MP60 OUT IN1 VIN VIN pch5 W=1u L=600n m=1.0
.ENDS

************************************************************************
* Library Name: HGEE095LPT5_IP
* Cell Name:    SHENL_LIB_NAND_1_1
* View Name:    schematic
************************************************************************

.SUBCKT SHENL_LIB_NAND_1_1 IN1 IN2 OUT VIN VSS
*.PININFO IN1:I IN2:I VIN:I VSS:I OUT:O
MM2 net17 IN1 VSS VSS nch5 W=1u L=600n m=1.0
MN53 OUT IN2 net17 VSS nch5 W=1u L=600n m=1.0
MP59 OUT IN2 VIN VIN pch5 W=1u L=600n m=1.0
MP60 OUT IN1 VIN VIN pch5 W=1u L=600n m=1.0
.ENDS

************************************************************************
* Library Name: HGEE095LPT5_IP
* Cell Name:    SHENL_LIB_INV_12_6
* View Name:    schematic
************************************************************************

.SUBCKT SHENL_LIB_INV_12_6 IN OUT VIN VSS
*.PININFO IN:I VIN:I VSS:I OUT:B
MN55 OUT IN VSS VSS nch5 W=6u L=600n m=1.0
MP61 OUT IN VIN VIN pch5 W=12u L=600n m=1.0
.ENDS

************************************************************************
* Library Name: HGEE095LPT5_IP
* Cell Name:    SHENL_LIB_INV_6_3
* View Name:    schematic
************************************************************************

.SUBCKT SHENL_LIB_INV_6_3 IN OUT VIN VSS
*.PININFO IN:I VIN:I VSS:I OUT:B
MN55 OUT IN VSS VSS nch5 W=3u L=600n m=1.0
MP61 OUT IN VIN VIN pch5 W=6u L=600n m=1.0
.ENDS

************************************************************************
* Library Name: HGEE095LPT5_IP
* Cell Name:    SHENL_LIB_INV_2_1
* View Name:    schematic
************************************************************************

.SUBCKT SHENL_LIB_INV_2_1 IN OUT VIN VSS
*.PININFO IN:I VIN:I VSS:I OUT:B
MN55 OUT IN VSS VSS nch5 W=1u L=600n m=1.0
MP61 OUT IN VIN VIN pch5 W=2u L=600n m=1.0
.ENDS

************************************************************************
* Library Name: HGEE095LPT5_IP
* Cell Name:    SHENL_LIB_F5
* View Name:    schematic
************************************************************************

.SUBCKT SHENL_LIB_F5 GND H01 H02 H03 N01 VDD
*.PININFO H01:I H02:I H03:I N01:O GND:B VDD:B
MNM0 net33 H03 net040 GND nch5 W=1u L=600n m=1.0
MM2 net040 H02 net035 GND nch5 W=1u L=600n m=1.0
MM5 N01 net33 GND GND nch5 W=500n L=600n m=1.0
MM3 net035 H01 GND GND nch5 W=1u L=600n m=1.0
MPM0 net33 H01 VDD VDD pch5 W=1u L=600n m=1.0
MM1 net33 H03 VDD VDD pch5 W=1u L=600n m=1.0
MM4 N01 net33 VDD VDD pch5 W=1u L=600n m=1.0
MM0 net33 H02 VDD VDD pch5 W=1u L=600n m=1.0
.ENDS

************************************************************************
* Library Name: HGEE095LPT5_IP
* Cell Name:    SHENL_LIB_INV_1_D5
* View Name:    schematic
************************************************************************

.SUBCKT SHENL_LIB_INV_1_D5 IN OUT VIN VSS
*.PININFO IN:I VIN:I VSS:I OUT:B
MN55 OUT IN VSS VSS nch5 W=500n L=600n m=1.0
MP61 OUT IN VIN VIN pch5 W=1u L=600n m=1.0
.ENDS

************************************************************************
* Library Name: HGEE095LPT5_IP
* Cell Name:    SHENL_LIB_DFF
* View Name:    schematic
************************************************************************

.SUBCKT SHENL_LIB_DFF CK D GIN Q QN RN SN VIN
*.PININFO CK:B D:B GIN:B Q:B QN:B RN:B SN:B VIN:B
MNM8 N12 N9 N24 GIN nch5 W=500n L=600n m=1.0
MNM9 N24 N11 GIN GIN nch5 W=500n L=600n m=1.0
MM29 Q N16 GIN GIN nch5 W=500n L=600n m=1.0
MM25 QN N14 GIN GIN nch5 W=500n L=600n m=1.0
MM27 N16 N14 GIN GIN nch5 W=500n L=600n m=1.0
MNM16 N27 N14 GIN GIN nch5 W=500n L=600n m=1.0
MNM15 N15 N10 N27 GIN nch5 W=500n L=600n m=1.0
MNM0 N10 CK GIN GIN nch5 W=500n L=600n m=1.0
MM1 N9 N10 GIN GIN nch5 W=500n L=600n m=1.0
MM21 N14 N15 N28 GIN nch5 W=500n L=600n m=1.0
MM22 N28 SN GIN GIN nch5 W=500n L=600n m=1.0
MM20 N14 N13 N28 GIN nch5 W=500n L=600n m=1.0
MM16 N15 N9 N26 GIN nch5 W=500n L=600n m=1.0
MM17 N26 N11 GIN GIN nch5 W=500n L=600n m=1.0
MM12 N25 SN GIN GIN nch5 W=500n L=600n m=1.0
MM10 N11 N13 N25 GIN nch5 W=500n L=600n m=1.0
MM11 N11 N12 N25 GIN nch5 W=500n L=600n m=1.0
MM2 N13 RN GIN GIN nch5 W=500n L=600n m=1.0
MM7 N23 D GIN GIN nch5 W=500n L=600n m=1.0
MM6 N12 N10 N23 GIN nch5 W=500n L=600n m=1.0
MPM0 N10 CK VIN VIN pch5 W=1u L=600n m=1.0
MM38 N15 N10 N20 VIN pch5 W=1u L=600n m=1.0
MPM7 N18 N11 VIN VIN pch5 W=1u L=600n m=1.0
MPM8 N12 N10 N18 VIN pch5 W=1u L=600n m=1.0
MPM14 N21 N14 VIN VIN pch5 W=1u L=600n m=1.0
MM41 N14 SN VIN VIN pch5 W=1u L=600n m=1.0
MM37 N20 N11 VIN VIN pch5 W=1u L=600n m=1.0
MM33 N12 N9 N0 VIN pch5 W=1u L=600n m=1.0
MM35 N11 SN VIN VIN pch5 W=1u L=600n m=1.0
MM34 N19 N13 VIN VIN pch5 W=1u L=600n m=1.0
MM39 N22 N13 VIN VIN pch5 W=1u L=600n m=1.0
MM40 N14 N15 N22 VIN pch5 W=1u L=600n m=1.0
MM30 N9 N10 VIN VIN pch5 W=1u L=600n m=1.0
MM43 N16 N14 VIN VIN pch5 W=1u L=600n m=1.0
MM36 N11 N12 N19 VIN pch5 W=1u L=600n m=1.0
MM31 N13 RN VIN VIN pch5 W=1u L=600n m=1.0
MM32 N0 D VIN VIN pch5 W=1u L=600n m=1.0
MM42 QN N14 VIN VIN pch5 W=1u L=600n m=1.0
MM44 Q N16 VIN VIN pch5 W=1u L=600n m=1.0
MPM15 N15 N9 N21 VIN pch5 W=1u L=600n m=1.0
.ENDS

************************************************************************
* Library Name: HGEE095LPT5_IP
* Cell Name:    SHENL_LIB_XOR
* View Name:    schematic
************************************************************************

.SUBCKT SHENL_LIB_XOR GND H01 H02 N01 VDD
*.PININFO H01:I H02:I N01:O GND:B VDD:B
MNM2 net08 net020 GND GND nch5 W=1u L=600n m=1.0
MNM4 net014 H01 GND GND nch5 W=1u L=600n m=1.0
MNM1 net020 H01 GND GND nch5 W=1u L=600n m=1.0
MNM0 net020 H02 GND GND nch5 W=1u L=600n m=1.0
MNM3 net08 H02 net014 GND nch5 W=1u L=600n m=1.0
MNM5 N01 net08 GND GND nch5 W=1u L=600n m=1.0
MPM0 net42 H02 VDD VDD pch5 W=1u L=600n m=1.0
MPM3 net041 H02 VDD VDD pch5 W=1u L=600n m=1.0
MPM1 net020 H01 net42 VDD pch5 W=1u L=600n m=1.0
MPM5 N01 net08 VDD VDD pch5 W=1u L=600n m=1.0
MPM2 net041 H01 VDD VDD pch5 W=1u L=600n m=1.0
MPM4 net08 net020 net041 VDD pch5 W=1u L=600n m=1.0
.ENDS

************************************************************************
* Library Name: HGEE095LPT5_IP
* Cell Name:    SHENL_LIB_AN4_1_1
* View Name:    schematic
************************************************************************

.SUBCKT SHENL_LIB_AN4_1_1 GND H01 H02 H03 H04 N01 VDD
*.PININFO H01:I H02:I H03:I H04:I N01:O GND:B VDD:B
MNM0 net072 H04 GND GND nch5 W=1u L=600n m=1.0
MNM3 net22 H03 net064 GND nch5 W=1u L=600n m=1.0
MNM1 net069 H01 net072 GND nch5 W=1u L=600n m=1.0
MNM2 net064 H02 net069 GND nch5 W=1u L=600n m=1.0
MNM4 N01 net22 GND GND nch5 W=600n L=600n m=1.0
MPM0 net22 H01 VDD VDD pch5 W=1u L=600n m=1.0
MPM4 N01 net22 VDD VDD pch5 W=1u L=600n m=1.0
MPM1 net22 H02 VDD VDD pch5 W=1u L=600n m=1.0
MPM2 net22 H03 VDD VDD pch5 W=1u L=600n m=1.0
MPM3 net22 H04 VDD VDD pch5 W=1u L=600n m=1.0
.ENDS

************************************************************************
* Library Name: HGEE095LPT5_IP
* Cell Name:    SHENL_SAMPLE_V3
* View Name:    schematic
************************************************************************

.SUBCKT SHENL_SAMPLE_V3 ADC_PDB CLKIN EN OUT START STIME[3] STIME[2] STIME[1] 
+ STIME[0] VDDD VSSD
*.PININFO ADC_PDB:I CLKIN:B EN:B OUT:B START:B STIME[3]:B STIME[2]:B 
*.PININFO STIME[1]:B STIME[0]:B VDDD:B VSSD:B
XI183 net054 START net60 VDDD VSSD / SHENL_LIB_NAND_1_1
XI182 net058 CLKIN net047 VDDD VSSD / SHENL_LIB_NAND_1_1
XI218 net0112 net070 VDDD VSSD / SHENL_LIB_INV_1_D5
XI211 net60 net0112 VDDD VSSD / SHENL_LIB_INV_1_D5
XI214 net037 OUT VDDD VSSD / SHENL_LIB_INV_1_D5
XI180 net047 net051 VDDD VSSD / SHENL_LIB_INV_1_D5
XI213 EN net054 VDDD VSSD / SHENL_LIB_INV_1_D5
XI195 net0130 net037 VDDD VSSD / SHENL_LIB_INV_1_D5
XI212 EN net058 VDDD VSSD / SHENL_LIB_INV_1_D5
XI186 net085 net077 VSSD net12 net077 net070 VDDD VDDD / SHENL_LIB_DFF
XI188 net091 VDDD VSSD net0130 net081 net070 ADC_PDB VDDD / SHENL_LIB_DFF
XI185 net0109 net085 VSSD net20 net085 net070 VDDD VDDD / SHENL_LIB_DFF
XI187 net077 net093 VSSD net28 net093 net070 VDDD VDDD / SHENL_LIB_DFF
XI184 net051 net0109 VSSD net44 net0109 net070 VDDD VDDD / SHENL_LIB_DFF
XI215 VSSD net20 STIME[1] net0106 VDDD / SHENL_LIB_XOR
XI216 VSSD net12 STIME[2] net0111 VDDD / SHENL_LIB_XOR
XI189 VSSD net44 STIME[0] net096 VDDD / SHENL_LIB_XOR
XI217 VSSD net28 STIME[3] net0101 VDDD / SHENL_LIB_XOR
XI196 VSSD net096 net0106 net0111 net0101 net091 VDDD / SHENL_LIB_AN4_1_1
.ENDS

************************************************************************
* Library Name: HGEE095LPT5_IP
* Cell Name:    SHENL_LIB_INV_1D5_D6_1D5
* View Name:    schematic
************************************************************************

.SUBCKT SHENL_LIB_INV_1D5_D6_1D5 IN OUT VIN VSS
*.PININFO IN:I VIN:I VSS:I OUT:O
MN55 OUT IN VSS VSS nch5 W=600n L=1.5u m=1.0
MP61 OUT IN VIN VIN pch5 W=1.5u L=1.5u m=1.0
.ENDS

************************************************************************
* Library Name: HGEE095LPT5_IP
* Cell Name:    SHENL_LIB_INV_3_1d5_M2
* View Name:    schematic
************************************************************************

.SUBCKT SHENL_LIB_INV_3_1d5_M2 IN OUT VIN VSS
*.PININFO IN:I VIN:I VSS:I OUT:B
MN168 OUT IN VSS VSS nch5 W=1.5u L=600n m=2.0
MP156 OUT IN VIN VIN pch5 W=3u L=600n m=2.0
.ENDS

************************************************************************
* Library Name: HGEE095LPT5_IP
* Cell Name:    SHENL_LIB_DELAY_4NS
* View Name:    schematic
************************************************************************

.SUBCKT SHENL_LIB_DELAY_4NS VDD VSS samp_ph sample1 sample2 sample3 sample4
*.PININFO VDD:I VSS:I samp_ph:I sample1:B sample2:B sample3:B sample4:B
XI112 net095 net099 VDD VSS / SHENL_LIB_INV_1D5_D6_1D5
XI108 net023 net026 VDD VSS / SHENL_LIB_INV_1D5_D6_1D5
XI113 net099 net091 VDD VSS / SHENL_LIB_INV_1D5_D6_1D5
XI119 net055 net029 VDD VSS / SHENL_LIB_INV_1D5_D6_1D5
XI114 net091 net053 VDD VSS / SHENL_LIB_INV_1D5_D6_1D5
XI72 net037 net023 VDD VSS / SHENL_LIB_INV_1D5_D6_1D5
XI110 net065 net069 VDD VSS / SHENL_LIB_INV_1D5_D6_1D5
XI109 net026 net065 VDD VSS / SHENL_LIB_INV_1D5_D6_1D5
XI111 net069 net095 VDD VSS / SHENL_LIB_INV_1D5_D6_1D5
XI121 net0107 net017 VDD VSS / SHENL_LIB_INV_1D5_D6_1D5
XI120 net029 net0107 VDD VSS / SHENL_LIB_INV_1D5_D6_1D5
XI118 net041 net055 VDD VSS / SHENL_LIB_INV_1D5_D6_1D5
XI122 net017 net047 VDD VSS / SHENL_LIB_INV_1D5_D6_1D5
XI116 net025 net085 VDD VSS / SHENL_LIB_INV_1D5_D6_1D5
XI115 net053 net025 VDD VSS / SHENL_LIB_INV_1D5_D6_1D5
XI117 net085 net041 VDD VSS / SHENL_LIB_INV_1D5_D6_1D5
XI126 samp_ph net037 VDD VSS / SHENL_LIB_INV_1_D5
XI124 net055 sample3 VDD VSS / SHENL_LIB_INV_3_1d5_M2
XI103 net069 sample1 VDD VSS / SHENL_LIB_INV_3_1d5_M2
XI123 net053 sample2 VDD VSS / SHENL_LIB_INV_3_1d5_M2
XI125 net047 sample4 VDD VSS / SHENL_LIB_INV_3_1d5_M2
.ENDS

************************************************************************
* Library Name: HGEE095LPT5_IP
* Cell Name:    SHENL_LOGIC_V3
* View Name:    schematic
************************************************************************

.SUBCKT SHENL_LOGIC_V3 ADC_DOUT[11] ADC_DOUT[10] ADC_DOUT[9] ADC_DOUT[8] 
+ ADC_DOUT[7] ADC_DOUT[6] ADC_DOUT[5] ADC_DOUT[4] ADC_DOUT[3] ADC_DOUT[2] 
+ ADC_DOUT[1] ADC_DOUT[0] ADC_EOC ADC_ST CLKIN DACSEL[11] DACSEL[10] DACSEL[9] 
+ DACSEL[8] DACSEL[7] DACSEL[6] DACSEL[5] DACSEL[4] DACSEL[3] DACSEL[2] 
+ DACSEL[1] DACSEL[0] DATA EN GIND SAMPLE1 SAMPLE2 SAMPLE3 SAMPLE4 SAMPLE5 
+ STIME[3] STIME[2] STIME[1] STIME[0] VIND latch_pulse reset_pulse
*.PININFO ADC_ST:I CLKIN:I DATA:I EN:I GIND:I STIME[3]:I STIME[2]:I STIME[1]:I 
*.PININFO STIME[0]:I VIND:I ADC_DOUT[11]:O ADC_DOUT[10]:O ADC_DOUT[9]:O 
*.PININFO ADC_DOUT[8]:O ADC_DOUT[7]:O ADC_DOUT[6]:O ADC_DOUT[5]:O 
*.PININFO ADC_DOUT[4]:O ADC_DOUT[3]:O ADC_DOUT[2]:O ADC_DOUT[1]:O 
*.PININFO ADC_DOUT[0]:O ADC_EOC:O DACSEL[11]:O DACSEL[10]:O DACSEL[9]:O 
*.PININFO DACSEL[8]:O DACSEL[7]:O DACSEL[6]:O DACSEL[5]:O DACSEL[4]:O 
*.PININFO DACSEL[3]:O DACSEL[2]:O DACSEL[1]:O DACSEL[0]:O SAMPLE1:O SAMPLE2:O 
*.PININFO SAMPLE3:O SAMPLE4:O SAMPLE5:O latch_pulse:O reset_pulse:O
XI989 latch net0187 net317 net227 VIND GIND / SHENL_LIB_NAND3_1_1
XI904 reset net0179 net477 net232 VIND GIND / SHENL_LIB_NAND3_1_1
XI817 CLKIN net210 net217 VIND GIND / SHENL_LIB_NAND_1_1
XI818 net202 clk2 net222 VIND GIND / SHENL_LIB_NAND_1_1
XI819 net198 clk1 net237 VIND GIND / SHENL_LIB_NAND_1_1
XI1013 net0197 RESET1 VIND GIND / SHENL_LIB_INV_12_6
XI1019 net0209 net606 VIND GIND / SHENL_LIB_INV_12_6
XI1010 net0188 SET VIND GIND / SHENL_LIB_INV_12_6
XI1009 net622 net0188 VIND GIND / SHENL_LIB_INV_6_3
XI1014 net0181 net0197 VIND GIND / SHENL_LIB_INV_6_3
XI1020 net0185 net0209 VIND GIND / SHENL_LIB_INV_6_3
XI1018 net0221 net0185 VIND GIND / SHENL_LIB_INV_2_1
XI1012 net0205 net0181 VIND GIND / SHENL_LIB_INV_2_1
XI1011 ADS1_CLK net622 VIND GIND / SHENL_LIB_INV_2_1
XI902 GIND clk2 ADC_PDB SAMPLEB net624 VIND / SHENL_LIB_F5
XXSAMPLELOGIC VIND clk2 ENB_ADC SAMPLEB ADS1_CLK STIME[3] STIME[2] STIME[1] 
+ STIME[0] VIND GIND / SHENL_SAMPLE_V3
XI860 net0501 DACSEL[9] GIND ADC_DOUT[9] net640 VIND VIND VIND / SHENL_LIB_DFF
XI840 RESET1 PULSE8B GIND PULSE9B PULSE9 SET VIND VIND / SHENL_LIB_DFF
XI838 RESET1 PULSE6B GIND PULSE7B PULSE7 SET VIND VIND / SHENL_LIB_DFF
XI841 RESET1 PULSE9B GIND PULSE10B PULSE10 SET VIND VIND / SHENL_LIB_DFF
XI857 GIND GIND GIND net331 net643 SET net462 VIND / SHENL_LIB_DFF
XI833 RESET1 PULSE1B GIND PULSE2B PULSE2 SET VIND VIND / SHENL_LIB_DFF
XI994 net0617 VIND GIND net0180 net0160 SET VIND VIND / SHENL_LIB_DFF
XI843 RESET1 PULSE11B GIND net293 PULSE12 SET VIND VIND / SHENL_LIB_DFF
XI848 DACSEL[7] net606 GIND DACSEL[8] net302 SET PULSE4 VIND / SHENL_LIB_DFF
XI867 net0501 DACSEL[2] GIND ADC_DOUT[2] net633 VIND VIND VIND / SHENL_LIB_DFF
XI892 PULSE12 GIND GIND net317 net318 net186 PULSE1 VIND / SHENL_LIB_DFF
XI855 DACSEL[0] net606 GIND DACSEL[1] net647 SET PULSE11 VIND / SHENL_LIB_DFF
XI856 net331 net606 GIND DACSEL[0] net650 SET PULSE12 VIND / SHENL_LIB_DFF
XI832 RESET1 SAMPLE1 GIND PULSE1B PULSE1 SET VIND VIND / SHENL_LIB_DFF
XI831 RESET1 GIND GIND SAMPLE1 net350 VIND SET VIND / SHENL_LIB_DFF
XI850 DACSEL[5] net606 GIND DACSEL[6] net646 SET PULSE6 VIND / SHENL_LIB_DFF
XI864 net0501 DACSEL[5] GIND ADC_DOUT[5] net636 VIND VIND VIND / SHENL_LIB_DFF
XI834 RESET1 PULSE2B GIND PULSE3B PULSE3 SET VIND VIND / SHENL_LIB_DFF
XI853 DACSEL[2] net606 GIND DACSEL[3] net631 SET PULSE9 VIND / SHENL_LIB_DFF
XI829 clk2 ADC_ST GIND ADS1_CLK net390 ADC_PDB VIND VIND / SHENL_LIB_DFF
XI836 RESET1 PULSE4B GIND PULSE5B PULSE5 SET VIND VIND / SHENL_LIB_DFF
XI861 net0501 DACSEL[8] GIND ADC_DOUT[8] net639 VIND VIND VIND / SHENL_LIB_DFF
XI849 DACSEL[6] net606 GIND DACSEL[7] net414 SET PULSE5 VIND / SHENL_LIB_DFF
XI865 net0501 DACSEL[4] GIND ADC_DOUT[4] net422 VIND VIND VIND / SHENL_LIB_DFF
XI866 net0501 DACSEL[3] GIND ADC_DOUT[3] net634 VIND VIND VIND / SHENL_LIB_DFF
XI852 DACSEL[3] net606 GIND DACSEL[4] net438 SET PULSE8 VIND / SHENL_LIB_DFF
XI854 DACSEL[1] net606 GIND DACSEL[2] net651 SET PULSE10 VIND / SHENL_LIB_DFF
XI835 RESET1 PULSE3B GIND PULSE4B PULSE4 SET VIND VIND / SHENL_LIB_DFF
XI844 RESET1 net293 GIND net461 net462 SET VIND VIND / SHENL_LIB_DFF
XI858 net0501 DACSEL[11] GIND ADC_DOUT[11] net470 VIND VIND VIND / 
+ SHENL_LIB_DFF
XI891 PULSE12 GIND GIND net477 net478 net214 PULSE2 VIND / SHENL_LIB_DFF
XI863 net0501 DACSEL[6] GIND ADC_DOUT[6] net486 VIND VIND VIND / SHENL_LIB_DFF
XI859 net0501 DACSEL[10] GIND ADC_DOUT[10] net494 VIND VIND VIND / 
+ SHENL_LIB_DFF
XI851 DACSEL[4] net606 GIND DACSEL[5] net648 SET PULSE7 VIND / SHENL_LIB_DFF
XI845 DACSEL[10] net606 GIND DACSEL[11] net654 SET PULSE1 VIND / SHENL_LIB_DFF
XI846 DACSEL[9] net606 GIND DACSEL[10] net518 SET PULSE2 VIND / SHENL_LIB_DFF
XI847 DACSEL[8] net606 GIND DACSEL[9] net652 SET PULSE3 VIND / SHENL_LIB_DFF
XI868 net0501 DACSEL[1] GIND ADC_DOUT[1] net632 VIND VIND VIND / SHENL_LIB_DFF
XI869 net0501 DACSEL[0] GIND ADC_DOUT[0] net630 VIND VIND VIND / SHENL_LIB_DFF
XI842 RESET1 PULSE10B GIND PULSE11B PULSE11 SET VIND VIND / SHENL_LIB_DFF
XI837 RESET1 PULSE5B GIND PULSE6B PULSE6 SET VIND VIND / SHENL_LIB_DFF
XI839 RESET1 PULSE7B GIND PULSE8B PULSE8 SET VIND VIND / SHENL_LIB_DFF
XI862 net0501 DACSEL[7] GIND ADC_DOUT[7] net574 VIND VIND VIND / SHENL_LIB_DFF
XI1001 ENB_ADC net214 VIND GIND / SHENL_LIB_INV_1_D5
XI1008 ENB_ADC ADC_PDB VIND GIND / SHENL_LIB_INV_1_D5
XI1004 net237 latch VIND GIND / SHENL_LIB_INV_1_D5
XI1006 clk2 net198 VIND GIND / SHENL_LIB_INV_1_D5
XI1005 net227 latch_pulse VIND GIND / SHENL_LIB_INV_1_D5
XI999 clk3 net202 VIND GIND / SHENL_LIB_INV_1_D5
XI1022 EN ENB_ADC VIND GIND / SHENL_LIB_INV_1_D5
XI1003 net232 reset_pulse VIND GIND / SHENL_LIB_INV_1_D5
XI1007 ENB_ADC net186 VIND GIND / SHENL_LIB_INV_1_D5
XI1000 net222 reset VIND GIND / SHENL_LIB_INV_1_D5
XI998 net217 clk1 VIND GIND / SHENL_LIB_INV_1_D5
XI801 ENB_ADC net210 VIND GIND / SHENL_LIB_INV_1_D5
XI1002 SAMPLE5 net0179 VIND GIND / SHENL_LIB_INV_1_D5
XI1015 net624 net0205 VIND GIND / SHENL_LIB_INV_1_D5
XI990 SAMPLE5 net0187 VIND GIND / SHENL_LIB_INV_1_D5
XI1017 net0160 ADC_EOC VIND GIND / SHENL_LIB_INV_1_D5
XI1021 DATA net0221 VIND GIND / SHENL_LIB_INV_1_D5
XXLOGIC_SAMPLEDELAY VIND GIND SAMPLE1 SAMPLE2 SAMPLE3 SAMPLE4 SAMPLE5 / 
+ SHENL_LIB_DELAY_4NS
XI887 VIND GIND clk1 net664 net660 net662 clk2 / SHENL_LIB_DELAY_4NS
XI888 VIND GIND clk2 net661 net591 net663 clk3 / SHENL_LIB_DELAY_4NS
XI886 VIND GIND net461 net603 net598 net0501 net0617 / SHENL_LIB_DELAY_4NS
.ENDS

************************************************************************
* Library Name: HGEE095LPT5_IP
* Cell Name:    SHENL_LIB_NOR_1_1
* View Name:    schematic
************************************************************************

.SUBCKT SHENL_LIB_NOR_1_1 IN1 IN2 OUT VIN VSS
*.PININFO IN1:I IN2:I VIN:I VSS:I OUT:O
MM0 OUT IN2 VSS VSS nch5 W=1u L=600n m=1.0
MN62 OUT IN1 VSS VSS nch5 W=1u L=600n m=1.0
MP67 OUT IN2 net17 VIN pch5 W=1u L=600n m=1.0
MP66 net17 IN1 VIN VIN pch5 W=1u L=600n m=1.0
.ENDS

************************************************************************
* Library Name: HGEE095LPT5_IP
* Cell Name:    SHENL_LIB_INV_2_1_2
* View Name:    schematic
************************************************************************

.SUBCKT SHENL_LIB_INV_2_1_2 IN OUT VIN VSS
*.PININFO IN:I VIN:I VSS:I OUT:O
MN55 OUT IN VSS VSS nch5 W=1u L=2u m=1.0
MP61 OUT IN VIN VIN pch5 W=2u L=2u m=1.0
.ENDS

************************************************************************
* Library Name: HGEE095LPT5_IP
* Cell Name:    SHENL_NONOVERLAP_DUMMY_DOWN
* View Name:    schematic
************************************************************************

.SUBCKT SHENL_NONOVERLAP_DUMMY_DOWN N- P- SAM VIN VSS
*.PININFO SAM:I N-:B P-:B VIN:B VSS:B
XI10 net029 net37 net053 VIN VSS / SHENL_LIB_NAND_1_1
XI9 net049 net37 net20 VIN VSS / SHENL_LIB_NOR_1_1
XI77 net041 net049 VIN VSS / SHENL_LIB_INV_1D5_D6_1D5
XI76 net33 net041 VIN VSS / SHENL_LIB_INV_1D5_D6_1D5
XI63 net29 net037 VIN VSS / SHENL_LIB_INV_1D5_D6_1D5
XI65 net037 net029 VIN VSS / SHENL_LIB_INV_1D5_D6_1D5
XI40 net20 net29 VIN VSS / SHENL_LIB_INV_2_1_2
XI39 net053 net33 VIN VSS / SHENL_LIB_INV_2_1_2
XI61 N- P- VIN VSS / SHENL_LIB_INV_1_D5
XI60 net053 N- VIN VSS / SHENL_LIB_INV_1_D5
XI67 net018 net37 VIN VSS / SHENL_LIB_INV_1_D5
XI0 SAM net018 VIN VSS / SHENL_LIB_INV_1_D5
.ENDS

************************************************************************
* Library Name: HGEE095LPT5_IP
* Cell Name:    SHENL_LIB_NAN_1_1
* View Name:    schematic
************************************************************************

.SUBCKT SHENL_LIB_NAN_1_1 IN1 IN2 OUT VIN VSS
*.PININFO IN1:I IN2:I VIN:I VSS:I OUT:O
MM3 OUT net033 VSS VSS nch5 W=1u L=600n m=1.0
MM2 net17 IN1 VSS VSS nch5 W=1u L=600n m=1.0
MN53 net033 IN2 net17 VSS nch5 W=1u L=600n m=1.0
MM1 OUT net033 VIN VIN pch5 W=2u L=600n m=1.0
MP59 net033 IN2 VIN VIN pch5 W=1u L=600n m=1.0
MP60 net033 IN1 VIN VIN pch5 W=1u L=600n m=1.0
.ENDS

************************************************************************
* Library Name: HGEE095LPT5_IP
* Cell Name:    SHENL_NONOVERLAP_SAMPLE
* View Name:    schematic
************************************************************************

.SUBCKT SHENL_NONOVERLAP_SAMPLE GIND N- P- SAM SEL VIND
*.PININFO SAM:I SEL:I GIND:B N-:B P-:B VIND:B
XI64 net29 net028 VIND GIND / SHENL_LIB_INV_1D5_D6_1D5
XI62 net028 net036 VIND GIND / SHENL_LIB_INV_1D5_D6_1D5
XI77 net056 net048 VIND GIND / SHENL_LIB_INV_1D5_D6_1D5
XI76 net33 net056 VIND GIND / SHENL_LIB_INV_1D5_D6_1D5
XI49 SAMB net058 N- VIND GIND / SHENL_LIB_NAN_1_1
XI48 SAMB net20 net031 VIND GIND / SHENL_LIB_NAN_1_1
XI51 SAM net044 VIND GIND / SHENL_LIB_INV_1_D5
XI42 net044 SAMB VIND GIND / SHENL_LIB_INV_1_D5
XI45 net031 P- VIND GIND / SHENL_LIB_INV_1_D5
XI46 net053 net058 VIND GIND / SHENL_LIB_INV_1_D5
XI0 SEL net37 VIND GIND / SHENL_LIB_INV_1_D5
XI9 net048 net37 net20 VIND GIND / SHENL_LIB_NOR_1_1
XI40 net20 net29 VIND GIND / SHENL_LIB_INV_2_1_2
XI39 net053 net33 VIND GIND / SHENL_LIB_INV_2_1_2
XI10 net036 net37 net053 VIND GIND / SHENL_LIB_NAND_1_1
.ENDS

************************************************************************
* Library Name: HGEE095LPT5_IP
* Cell Name:    SHENL_SW_ARRAY_LOGIC_V2_DELAY
* View Name:    schematic
************************************************************************

.SUBCKT SHENL_SW_ARRAY_LOGIC_V2_DELAY SEL[11] SEL[10] SEL[9] SEL[8] SEL[7] 
+ SEL[6] SEL[5] SEL[4] SEL[3] SEL[2] SEL[1] SEL[0] VA_IN_ENB VA_IN_ENB_DELAY 
+ VDDD VDDDA VREFN-D_EN VREFN-_EN[11] VREFN-_EN[10] VREFN-_EN[9] VREFN-_EN[8] 
+ VREFN-_EN[7] VREFN-_EN[6] VREFN-_EN[5] VREFN-_EN[4] VREFN-_EN[3] 
+ VREFN-_EN[2] VREFN-_EN[1] VREFN-_EN[0] VREFP-D_EN VREFP-_EN[11] 
+ VREFP-_EN[10] VREFP-_EN[9] VREFP-_EN[8] VREFP-_EN[7] VREFP-_EN[6] 
+ VREFP-_EN[5] VREFP-_EN[4] VREFP-_EN[3] VREFP-_EN[2] VREFP-_EN[1] 
+ VREFP-_EN[0] VSSD VSSDA
*.PININFO SEL[11]:I SEL[10]:I SEL[9]:I SEL[8]:I SEL[7]:I SEL[6]:I SEL[5]:I 
*.PININFO SEL[4]:I SEL[3]:I SEL[2]:I SEL[1]:I SEL[0]:I VA_IN_ENB:I 
*.PININFO VA_IN_ENB_DELAY:I VDDD:I VDDDA:I VSSD:I VSSDA:I VREFN-D_EN:O 
*.PININFO VREFN-_EN[11]:O VREFN-_EN[10]:O VREFN-_EN[9]:O VREFN-_EN[8]:O 
*.PININFO VREFN-_EN[7]:O VREFN-_EN[6]:O VREFN-_EN[5]:O VREFN-_EN[4]:O 
*.PININFO VREFN-_EN[3]:O VREFN-_EN[2]:O VREFN-_EN[1]:O VREFN-_EN[0]:O 
*.PININFO VREFP-D_EN:O VREFP-_EN[11]:O VREFP-_EN[10]:O VREFP-_EN[9]:O 
*.PININFO VREFP-_EN[8]:O VREFP-_EN[7]:O VREFP-_EN[6]:O VREFP-_EN[5]:O 
*.PININFO VREFP-_EN[4]:O VREFP-_EN[3]:O VREFP-_EN[2]:O VREFP-_EN[1]:O 
*.PININFO VREFP-_EN[0]:O
XI435 VREFN-D_EN VREFP-D_EN VA_IN_ENB_DELAY VDDD VSSD / 
+ SHENL_NONOVERLAP_DUMMY_DOWN
XI323 a6 VREFP-_EN[8] VDDDA VSSDA / SHENL_LIB_INV_2_1
XI294[8] a2 VREFP-_EN[11] VDDDA VSSDA / SHENL_LIB_INV_2_1
XI294[7] a2 VREFP-_EN[11] VDDDA VSSDA / SHENL_LIB_INV_2_1
XI294[6] a2 VREFP-_EN[11] VDDDA VSSDA / SHENL_LIB_INV_2_1
XI294[5] a2 VREFP-_EN[11] VDDDA VSSDA / SHENL_LIB_INV_2_1
XI294[4] a2 VREFP-_EN[11] VDDDA VSSDA / SHENL_LIB_INV_2_1
XI294[3] a2 VREFP-_EN[11] VDDDA VSSDA / SHENL_LIB_INV_2_1
XI294[2] a2 VREFP-_EN[11] VDDDA VSSDA / SHENL_LIB_INV_2_1
XI294[1] a2 VREFP-_EN[11] VDDDA VSSDA / SHENL_LIB_INV_2_1
XI378 net456 VREFP-_EN[3] VDDDA VSSDA / SHENL_LIB_INV_2_1
XI382[8] a21 VREFP-_EN[5] VDDDA VSSDA / SHENL_LIB_INV_2_1
XI382[7] a21 VREFP-_EN[5] VDDDA VSSDA / SHENL_LIB_INV_2_1
XI382[6] a21 VREFP-_EN[5] VDDDA VSSDA / SHENL_LIB_INV_2_1
XI382[5] a21 VREFP-_EN[5] VDDDA VSSDA / SHENL_LIB_INV_2_1
XI382[4] a21 VREFP-_EN[5] VDDDA VSSDA / SHENL_LIB_INV_2_1
XI382[3] a21 VREFP-_EN[5] VDDDA VSSDA / SHENL_LIB_INV_2_1
XI382[2] a21 VREFP-_EN[5] VDDDA VSSDA / SHENL_LIB_INV_2_1
XI382[1] a21 VREFP-_EN[5] VDDDA VSSDA / SHENL_LIB_INV_2_1
XI381[2] net412 VREFP-_EN[4] VDDDA VSSDA / SHENL_LIB_INV_2_1
XI381[1] net412 VREFP-_EN[4] VDDDA VSSDA / SHENL_LIB_INV_2_1
XI374 net520 VREFP-_EN[1] VDDDA VSSDA / SHENL_LIB_INV_2_1
XI377 net476 VREFP-_EN[2] VDDDA VSSDA / SHENL_LIB_INV_2_1
XI373 net540 VREFP-_EN[0] VDDDA VSSDA / SHENL_LIB_INV_2_1
XI301[2] a4 VREFP-_EN[10] VDDDA VSSDA / SHENL_LIB_INV_2_1
XI301[1] a4 VREFP-_EN[10] VDDDA VSSDA / SHENL_LIB_INV_2_1
XI352 net584 VREFP-_EN[6] VDDDA VSSDA / SHENL_LIB_INV_2_1
XI335 net604 VREFP-_EN[7] VDDDA VSSDA / SHENL_LIB_INV_2_1
XI313 net0421 VREFP-_EN[9] VDDDA VSSDA / SHENL_LIB_INV_2_1
XI484 VSSD net0448 net0137 VA_IN_ENB_DELAY SEL[10] VDDD / 
+ SHENL_NONOVERLAP_SAMPLE
XI486 VSSD net0151 net0149 VA_IN_ENB SEL[11] VDDD / SHENL_NONOVERLAP_SAMPLE
XI439 VSSD net0555 net0551 VA_IN_ENB_DELAY SEL[8] VDDD / 
+ SHENL_NONOVERLAP_SAMPLE
XI447 VSSD net0443 net0431 VA_IN_ENB_DELAY SEL[0] VDDD / 
+ SHENL_NONOVERLAP_SAMPLE
XI440 VSSD net0375 net0347 VA_IN_ENB_DELAY SEL[7] VDDD / 
+ SHENL_NONOVERLAP_SAMPLE
XI443 VSSD net0567 net0563 VA_IN_ENB_DELAY SEL[4] VDDD / 
+ SHENL_NONOVERLAP_SAMPLE
XI445 VSSD net0623 net0615 VA_IN_ENB_DELAY SEL[2] VDDD / 
+ SHENL_NONOVERLAP_SAMPLE
XI441 VSSD net0523 net0531 VA_IN_ENB_DELAY SEL[6] VDDD / 
+ SHENL_NONOVERLAP_SAMPLE
XI438 VSSD net0495 net0395 VA_IN_ENB_DELAY SEL[9] VDDD / 
+ SHENL_NONOVERLAP_SAMPLE
XI446 VSSD net0415 net0419 VA_IN_ENB_DELAY SEL[1] VDDD / 
+ SHENL_NONOVERLAP_SAMPLE
XI444 VSSD net0603 net0611 VA_IN_ENB_DELAY SEL[3] VDDD / 
+ SHENL_NONOVERLAP_SAMPLE
XI442 VSSD net0559 net0190 VA_IN_ENB_DELAY SEL[5] VDDD / 
+ SHENL_NONOVERLAP_SAMPLE
XI341 net0347 net604 VDDDA VSSDA / SHENL_LIB_INV_1_D5
XI291[2] net0264 VREFN-_EN[11] VDDDA VSSDA / SHENL_LIB_INV_1_D5
XI291[1] net0264 VREFN-_EN[11] VDDDA VSSDA / SHENL_LIB_INV_1_D5
XI295[2] net0149 a2 VDDDA VSSDA / SHENL_LIB_INV_1_D5
XI295[1] net0149 a2 VDDDA VSSDA / SHENL_LIB_INV_1_D5
XI339 net0375 net612 VDDDA VSSDA / SHENL_LIB_INV_1_D5
XI305 net0137 a4 VDDDA VSSDA / SHENL_LIB_INV_1_D5
XI332 net640 VREFN-_EN[8] VDDDA VSSDA / SHENL_LIB_INV_1_D5
XI319 net0395 net0421 VDDDA VSSDA / SHENL_LIB_INV_1_D5
XI396 net0415 net512 VDDDA VSSDA / SHENL_LIB_INV_1_D5
XI394 net0419 net520 VDDDA VSSDA / SHENL_LIB_INV_1_D5
XI389 net0431 net540 VDDDA VSSDA / SHENL_LIB_INV_1_D5
XI387 net0443 net548 VDDDA VSSDA / SHENL_LIB_INV_1_D5
XI384 net548 VREFN-_EN[0] VDDDA VSSDA / SHENL_LIB_INV_1_D5
XI400 net484 VREFN-_EN[2] VDDDA VSSDA / SHENL_LIB_INV_1_D5
XI297 net0151 net0264 VDDDA VSSDA / SHENL_LIB_INV_1_D5
XI431[2] net384 VREFN-_EN[5] VDDDA VSSDA / SHENL_LIB_INV_1_D5
XI431[1] net384 VREFN-_EN[5] VDDDA VSSDA / SHENL_LIB_INV_1_D5
XI317 net0495 net676 VDDDA VSSDA / SHENL_LIB_INV_1_D5
XI310 net704 VREFN-_EN[10] VDDDA VSSDA / SHENL_LIB_INV_1_D5
XI307 net0448 net704 VDDDA VSSDA / SHENL_LIB_INV_1_D5
XI351 net576 VREFN-_EN[6] VDDDA VSSDA / SHENL_LIB_INV_1_D5
XI426[2] net0190 a21 VDDDA VSSDA / SHENL_LIB_INV_1_D5
XI426[1] net0190 a21 VDDDA VSSDA / SHENL_LIB_INV_1_D5
XI348 net0523 net576 VDDDA VSSDA / SHENL_LIB_INV_1_D5
XI346 net0531 net584 VDDDA VSSDA / SHENL_LIB_INV_1_D5
XI314 net676 VREFN-_EN[9] VDDDA VSSDA / SHENL_LIB_INV_1_D5
XI327 net0551 a6 VDDDA VSSDA / SHENL_LIB_INV_1_D5
XI329 net0555 net640 VDDDA VSSDA / SHENL_LIB_INV_1_D5
XI428 net0559 net384 VDDDA VSSDA / SHENL_LIB_INV_1_D5
XI421 net0563 net412 VDDDA VSSDA / SHENL_LIB_INV_1_D5
XI419 net0567 net420 VDDDA VSSDA / SHENL_LIB_INV_1_D5
XI399 net512 VREFN-_EN[1] VDDDA VSSDA / SHENL_LIB_INV_1_D5
XI336 net612 VREFN-_EN[7] VDDDA VSSDA / SHENL_LIB_INV_1_D5
XI416 net420 VREFN-_EN[4] VDDDA VSSDA / SHENL_LIB_INV_1_D5
XI415 net448 VREFN-_EN[3] VDDDA VSSDA / SHENL_LIB_INV_1_D5
XI412 net0603 net448 VDDDA VSSDA / SHENL_LIB_INV_1_D5
XI410 net0611 net456 VDDDA VSSDA / SHENL_LIB_INV_1_D5
XI405 net0615 net476 VDDDA VSSDA / SHENL_LIB_INV_1_D5
XI403 net0623 net484 VDDDA VSSDA / SHENL_LIB_INV_1_D5
.ENDS

************************************************************************
* Library Name: HGEE095LPT5_IP
* Cell Name:    SHENL_SW_VIN_SW
* View Name:    schematic
************************************************************************

.SUBCKT SHENL_SW_VIN_SW D GN GP S VIN VSS
*.PININFO GN:I GP:I VIN:I VSS:I D:B S:B
MNM0 D GN S VSS nch5 W=700n L=600n m=1.0
MPM0 D GP S VIN pch5 W=700n L=600n m=3.0
.ENDS

************************************************************************
* Library Name: HGEE095LPT5_IP
* Cell Name:    SHENL_SW_VREFP
* View Name:    schematic
************************************************************************

.SUBCKT SHENL_SW_VREFP D GP S VIN
*.PININFO GP:I VIN:I D:B S:B
MPM0 D GP S VIN pch5 W=1u L=600n m=6.0
.ENDS

************************************************************************
* Library Name: HGEE095LPT5_IP
* Cell Name:    SHENL_SW_VREFN
* View Name:    schematic
************************************************************************

.SUBCKT SHENL_SW_VREFN D GN S VSS
*.PININFO GN:I VSS:I D:B S:B
MNM0 D GN S VSS nch5 W=700n L=600n m=1.0
.ENDS

************************************************************************
* Library Name: HGEE095LPT5_IP
* Cell Name:    SHENL_SW_VIN_VP_VN
* View Name:    schematic
************************************************************************

.SUBCKT SHENL_SW_VIN_VP_VN GNDDA VA_CAP VA_IN VA_IN_EN VA_IN_ENB VDDDA VREFN 
+ VREFN_EN VREFP VREFP_ENB
*.PININFO GNDDA:I VA_IN_EN:I VA_IN_ENB:I VDDDA:I VREFN_EN:I VREFP_ENB:I 
*.PININFO VA_CAP:B VA_IN:B VREFN:B VREFP:B
XI38 VA_CAP VA_IN_EN VA_IN_ENB VA_IN VDDDA GNDDA / SHENL_SW_VIN_SW